 .sol file Subbasin:2 HRU:4 Luse:FRSD Soil:A Wed Sep 13 13:15:28 2006 AVSWAT2000 - SWAT interface MDL
 Soil Name: A
 Soil Hydrologic Group: A
 Maximum rooting depth(m) : 1800.00
 Porosity fraction from which anions are excluded: 0.010
 Crack volume potential of soil: 0.500
 Texture 1                : 
 Depth                [mm]:     3500.00
 Bulk Density Moist [g/cc]:        1.45
 Ave. AW Incl. Rock Frag  :        0.13
 Ksat. (est.)      [mm/hr]:      198.00
 Organic Carbon [weight %]:        0.73
 Clay           [weight %]:        7.10
 Silt           [weight %]:       12.90
 Sand           [weight %]:       80.00
 Rock Fragments   [vol. %]:        5.00
 Soil Albedo (Moist)      :        0.06
 Erosion K                :        0.28
 Salinity (EC, Form 5)    :        0.00
                              
