 .sol file Subbasin:2 HRU:8 Luse:AGRR Soil:RCK Wed Sep 13 13:15:28 2006 AVSWAT2000 - SWAT interface MDL
 Soil Name: RCK
 Soil Hydrologic Group: A
 Maximum rooting depth(m) :  500.00
 Porosity fraction from which anions are excluded: 0.010
 Crack volume potential of soil: 0.500
 Texture 1                : 
 Depth                [mm]:     1000.00
 Bulk Density Moist [g/cc]:        2.35
 Ave. AW Incl. Rock Frag  :        0.13
 Ksat. (est.)      [mm/hr]:      200.00
 Organic Carbon [weight %]:        0.15
 Clay           [weight %]:        5.00
 Silt           [weight %]:       10.00
 Sand           [weight %]:       85.00
 Rock Fragments   [vol. %]:       50.00
 Soil Albedo (Moist)      :        0.06
 Erosion K                :        0.28
 Salinity (EC, Form 5)    :        0.00
                              
