 .sol file Subbasin:2 HRU:6 Luse:RICE Soil:C Wed Sep 13 13:15:28 2006 AVSWAT2000 - SWAT interface MDL
 Soil Name: C
 Soil Hydrologic Group: C
 Maximum rooting depth(m) : 1800.00
 Porosity fraction from which anions are excluded: 0.010
 Crack volume potential of soil: 0.500
 Texture 1                : 
 Depth                [mm]:     3500.00
 Bulk Density Moist [g/cc]:        1.38
 Ave. AW Incl. Rock Frag  :        0.18
 Ksat. (est.)      [mm/hr]:        1.98
 Organic Carbon [weight %]:        1.74
 Clay           [weight %]:       32.10
 Silt           [weight %]:       53.60
 Sand           [weight %]:       14.30
 Rock Fragments   [vol. %]:        1.00
 Soil Albedo (Moist)      :        0.01
 Erosion K                :        0.32
 Salinity (EC, Form 5)    :        0.00
                              
