 .sol file Subbasin:1 HRU:4 Luse:AGRR Soil:B Wed Sep 13 13:15:28 2006 AVSWAT2000 - SWAT interface MDL
 Soil Name: B
 Soil Hydrologic Group: B
 Maximum rooting depth(m) : 1800.00
 Porosity fraction from which anions are excluded: 0.010
 Crack volume potential of soil: 0.500
 Texture 1                : 
 Depth                [mm]:     3500.00
 Bulk Density Moist [g/cc]:        1.40
 Ave. AW Incl. Rock Frag  :        0.20
 Ksat. (est.)      [mm/hr]:       19.80
 Organic Carbon [weight %]:        1.16
 Clay           [weight %]:       17.50
 Silt           [weight %]:       22.50
 Sand           [weight %]:       60.00
 Rock Fragments   [vol. %]:        2.00
 Soil Albedo (Moist)      :        0.02
 Erosion K                :        0.43
 Salinity (EC, Form 5)    :        0.00
                              
