 .sol file Subbasin:1 HRU:1 Luse:RICE Soil:D2 Wed Sep 13 13:15:27 2006 AVSWAT2000 - SWAT interface MDL
 Soil Name: D2
 Soil Hydrologic Group: D
 Maximum rooting depth(m) : 1500.00
 Porosity fraction from which anions are excluded: 0.010
 Crack volume potential of soil: 0.500
 Texture 1                : 
 Depth                [mm]:     3500.00
 Bulk Density Moist [g/cc]:        1.38
 Ave. AW Incl. Rock Frag  :        0.20
 Ksat. (est.)      [mm/hr]:        0.01
 Organic Carbon [weight %]:        0.15
 Clay           [weight %]:       35.10
 Silt           [weight %]:       60.30
 Sand           [weight %]:        4.60
 Rock Fragments   [vol. %]:        1.00
 Soil Albedo (Moist)      :        0.17
 Erosion K                :        0.32
 Salinity (EC, Form 5)    :        0.00
                              
