 .wgn file Subbasin:2 METEO Sun Sep 17 22:23:59 2006 AVSWAT2000 - SWAT interface MDL
  LATITUDE =   0.00 LONGITUDE =   0.00
  ELEV [m] = 179.80
  RAIN_YRS =  30.00
 37.30 35.70 33.90 33.10 32.40 32.50 32.30 31.50 30.70 31.70 33.90 35.90
 25.50 25.30 25.00 24.80 24.60 24.70 24.10 21.60 18.40 18.40 20.80 23.70
  1.13  1.58  1.38  1.33  1.08  1.03  0.85  1.03  1.15  1.15  1.13  1.10
  1.48  1.23  1.00  0.80  0.80  0.75  1.75  2.38  2.38  2.38  1.95  2.75
 54.50178.40179.80187.90256.70230.60159.30 33.30  6.60  5.10 12.90 30.50
 19.00 19.00 39.00 77.00 97.00 83.00106.00 89.00115.00 88.00 47.00 15.00
  3.26  1.22  2.21  0.46 -0.16  1.49  0.34  0.26  0.81  0.55  3.07  3.09
  0.18  0.47  0.53  0.59  0.69  0.59  0.42  0.12  0.03  0.05  0.07  0.10
  0.82  0.53  0.47  0.41  0.31  0.41  0.58  0.88  0.97  0.95  0.93  0.90
  5.50 14.20 16.30 18.10 20.90 18.00 12.90  3.80  0.90  1.40  2.00  3.10
 11.13  3.54  0.17  2.26  7.08  4.48  2.28  7.08  4.24  0.70 12.63  0.67
  9.42 12.27 16.41 19.40 22.95 25.01 24.50 23.12 19.22 15.54 11.40  9.05
 21.90 23.30 23.90 23.80 24.00 24.20 23.30 20.40 16.90 16.90 18.30 20.30
  1.08  0.98  0.87  0.82  0.77  0.57  0.57  0.51  0.51  0.46  0.72  1.03
                              
