[Create Finite Difference Grid]
X Origin=0.0
Y Origin=0.0
Z Origin=0.0
X Dimension=100.0
Y Dimension=100.0
Z Dimension=10.0
Angle of Rotation=0.0
Bias X=1.0
Bias Y=1.0
Bias Z=1.0
Number Cells X=10
Number Cells Y=10
Number Cells Z=1
Base X=10.0
Base Y=10.0
Base Z=4.0
Limit X=50.0
Limit Y=50.0
Limit Z=20.0
Use X Base=0
Use Y Base=0
Use Z Base=0
Orientation / type=0
Viewing mode=0

[Create Finite Difference 2D Grid]
2D Grid Type=0
2D I-Direction=-2
2D J-Direction=1

[Create Finite Difference 3D Grid]
3D Grid Type=1
3D I-Direction=-2
3D J-Direction=1
3D K-Direction=-3

[MODPATH CHECK set up]
SUPPRESS=0
DISPLAYRGROUP=1
MAXDISPLAY=5

[MT3D CHECK set up]
BASIC=1
ADVECTION=1
DISPERSION=1
SOURCESINK=1
CHEMICAL=1
GCG=1
NAPL=1
COMETABOLISM=1
REDUCTION=1
BIODEGRADATION=1
OTHERS=0
SUPPRESS=0
DISPLAYRGROUP=1
MAXDISPLAY=5

[FEMWATER CHECK set up]
RUNOPTS=1
MESH=1
INITIAL=1
TIME=1
OUTPUT=1
MATERIAL=1
BC=1
CANAL=1
ITRPAR=1
SINK=1
SUPPRESS=0
DISPLAYRGROUP=1
MAXDISPLAY=5

[SEEP2D CHECK set up]
ANALYSISOPTS=1
MESH=1
MATERIAL=1
BC=1
NEGPRESSURE=1
SUPPRESS=0
DISPLAYRGROUP=1
MAXDISPLAY=5

[Run Option Parameters]
Flow/Transport Simulation Option=0
Steady state/transient option=0
Mass lumping=1
Mid-difference=0
Spline smooth=1
Solver option=0
Quadrature option=3
Weighting factor=1
Iter. parameter for non-linear flow and transport=1.0
Min value=0.01
Max value=1.5
Increment step=0.005
Reduction factor=0.6667
Iter. parameter for linear flow and transport=1.0
Sorption isotherm option=0

[Initial Conditions]
Initial condition start type=0
Hot start time=0.0
Initial pressure head conditions source=0
Initial constant total head=0.0
Initial concentration conditions source=0
Initial constant concentration=0.0

[Iteration Parameters]
# iter. Non-linear Flow Equation=40
# Cycles Rain Seepage=10
# iter. Linear Flow Equation=400
Steady Convergence For Flow Simulation=0.01
Transient Convergence For Flow Simulation=0.01
# iter. Non-linear Transport Equation=40
# iter. Linear Transport Equation=400
Transient Convergence For Transport Simulation=0.01
# iter. Coupled Transient=10
Iter. Param. Coupled Transient=0.5
Transient convergence head=0.01
Transient convergence concentration=0.05

[Control Tracking Parameters]
Num. Grids in X-dir=1
Num. Grids in Y-dir=1
Num. Grids in Z-dir=1
Particle Tracking Pattern=1

[Time Control]
Max. simulation time=12.0
Constant/Variable time step=0
Constant time step value=1.0

[Output Control]
Print diagnostic output=1
Print cyclic change=0
Print times option=0
Print interval=1
Print flow information=1
Print total head=1
Print pressure head=1
Print concentration=1
Print flux=0
Print moisture content=0
Print darcy velocity=0
ASCII/Binary format=1
Save options=0
Save interval=1
Save pressure head file=1
Save nodal moisture content file=0
Save velocity file=1
Save concentration file=1

[Initialize time steps]
Initial time step size=1.0
Percent change in time step size=1.0
Maximum delta time step=1.0

[Fluid Properties]
Density of water=1000.0
Viscosity of water=0.0
Compressibility of water=0.0
Acceleration of gravity=127000000.0

[Fluid Coefficients]
A1=1.0
A2=0.0
A3=0.0
A4=0.0
A5=1.0
A6=0.0
A7=0.0
A8=0.0

[Rainfall/evaporation RS3]
Ponding depth=0.0
Minimum pressure head=0.0

[Version]
INI Version=1280.0

[Viewing]
Current View=2
Bearing=0.0
Dip=90.0
Z Magnification=0
Z Magnification Factor=1.0
At X=0.0
At Y=325.65789473684
At Z=-49.75
Offset X=628560.0
Offset Y=1896480.0
Offset Z=0.0
Up X=0.0
Up Y=1.0
Up Z=6.12303177e-017
Width=74671.398891967
Height=61766.447368421
Depth=105783.68824172
X Screen Scale=0.010151142355
Y Screen Scale=-0.010151142355
X Screen Translate=379.0
Y Screen Translate=316.80579964851

[Lighting/Shading]
Background Color=255 255 255
Use light source=1
Smooth=0
Ambient light=0.9
Light position x=0.6999999880791
Light position y=0.1000000014901

[Triad Options]
Display Triad=1
Triad Color=0 0 0
Display Triad Font=1
Triad Font Color=0 0 0
Triad Font Text Font=1
Triad Font Text Fill=0 0 0
Triad Font Text Use Fill=0
Triad Font Text Autoformat=0
Triad Font Text in Scientific Notation=0
Triad Font Text Precision=0
Triad length=50

[Materials]
Display Material Color Legend=0
Material Color Legend Color=0 0 0

[FEMWATER Material Properties]
Kxx (permeability)=0.03
Kyy (permeability)=0.03
Kzz (permeability)=0.01
Kxz (permeability)=0.0
Kxy (permeability)=0.0
Kyz (permeability)=0.0
Distribution Coeff.=0.0
Bulk Density=0.0
Longitudinal Disper.=0.0
Lateral Disper.=0.0
Molec Diffsn Coeff.=0.0
Compressibility=0.0
Tortuosity=1.0
Decay Constant=0.0
Frnd N or Lang SMAX=0.0
Rate Const. Dissolved=0.0
Rate Const. Adsorbed=0.0
Effective Porosity Ratio=1.0

[WASH Material Properties]
Kxx (permeability)=0.03
Kyy (permeability)=0.03
Kzz (permeability)=0.01
Kxz (permeability)=0.0
Kxy (permeability)=0.0
Kyz (permeability)=0.0
Compressibility=0.0
Ponding Depth=0.0
Min. Pressure Head=0.0
Bulk Density=0.0
Tortuosity=1.0
Longitudinal Disper.=0.0
Trans./Long. Disper. Ratio=0.0
Molec Diffsn Coeff.=0.0
Effective Porosity=0.0
Mann. Roughness Coeff.=0.0
XX-eddy Viscosity=0.0
XY-eddy Viscosity=0.0

[MODFLOW Material Properties]
MT3D Top Elevation=0.0
Thickness=0.0
Porosity=0.3
Primary Storage Coefficient=0.0
Transmissivity=0.0
Hydrolic Conductivity=0.0
Bottom Elevation=0.0
Leakance=0.0
Top Elevation=0.0
Secondary Storage Coefficient=0.0
Wet Dry Flag=0.0
Horiz Anis=1.0
Vert Anis=3.0

[SEEP2D Material Properties]
k1=1.0
k2=1.0
angle=0.0
alpha=0.0
n=0.0
ho=-1.0
kro=0.01

[FACT Material Properties]
Kxx=0.0
Kyy=0.0
Kzz=0.0
Kxy=0.0
Kxz=0.0
Kyz=0.0
Sstore=0.0
eporosity=0.0
satheadmult=1.0
satheadtype=1
krsatmult=1.0
krsattype=1
distcoef=0.0
particlemassdensity=0.0
porosity=0.0
longhorzdisp=0.0
longvertdisp=0.0
transhorzdisp=0.0
transvertdisp=0.0
molecdiff=0.0
solutedecay=0.0
firstordermobile=0.0
minfracmobile=0.0
maxfracmobile=0.0
fracincontactmobile=0.0
firstorderimmobile=0.0
masstransmult=1.0

[Images]
Texture Mapping=1
Texture Map=1
Ttansparency=0.0

[Film Loop Options]
Transient Or Steady State=1
Number Of Frames=12
Animate Cutting Plane=0
Animate X Plane=0
Animate Y Plane=0
Animate Z Plane=0
Animate Iso-surface=0
Cap Below=0
Cap Above=0
Display Values=0
Display Clock=0
Match TS or Use Constant Interval=0
Number Of Frames Between Time Steps=0
Time Interval=1.0

[Drawing Grid Options]
Grid Spacing=0.1
Snap To Grid=0
Display Grid Point=0
Grid Point Color=0 0 0
Grid Point Point Radius=1
Grid Point Spacing=1
Display Grid Line=0
Grid Line Color=0 0 0
Grid Line Line Width=1
Grid Line Line Style=1
Grid Line Spacing=5

[Miscellaneous]
Show Welcome Dialog=0
Web Browser Default=

[Solids]
Num Divisions Cylinder=32
Num Divisions Sphere=32
Display Solid Edges=1
Solid Edges Color=0 0 0
Solid Edges Line Width=1
Solid Edges Line Style=0
Display Solid Faces=0
Solid Faces Color=0 0 0

[TINS]
Display Triangulation Progress=0
Triangulation Method=1
Retriangulate When Deleting=0
Adjust Boundary To Include New Vertices=0
Default Z Value=0.0
Confirm Z Value=0
Interpolate For Z On Interior=1
Extrapolate For Z On Exterior=1
Breakline Method=0
Min Length Ratio=0.97

[TIN Display Options]
TIN Edge Which Color=0
Vertices=1
Display Locked Verticers=1
Locked Verticers Color=255 0 0
Locked Verticers Point Radius=2
Display Unlocked Verticers=1
Unlocked Verticers Color=0 0 0
Unlocked Verticers Point Radius=2
Display Triangle=1
Triangle Color=0 0 0
Triangle Line Width=1
Triangle Line Style=0
Display Faces=0
Faces Color=0 0 0
Display Boundary=0
Boundary Color=0 0 255
Boundary Line Width=1
Boundary Line Style=0
Display Thiessen Polygon=0
Thiessen Polygon Color=255 0 0
Thiessen Polygon Line Width=1
Thiessen Polygon Line Style=0
Display Circum Circles=0
Circum Circles Color=0 255 51
Circum Circles Line Width=1
Circum Circles Line Style=0
Display Vertex Number=0
Vertex Number Color=0 0 0
Vertex Number Text Font=2
Vertex Number Text Fill=0 0 0
Vertex Number Text Use Fill=0
Vertex Number Text Autoformat=0
Vertex Number Text in Scientific Notation=0
Vertex Number Text Precision=0
Display Scalar Value=0
Scalar Value Color=0 0 0
Scalar Value Text Font=2
Scalar Value Text Fill=0 0 0
Scalar Value Text Use Fill=0
Scalar Value Text Autoformat=0
Scalar Value Text in Scientific Notation=0
Scalar Value Text Precision=4
Display Contours=0
Contours Color=0 0 0
Display Vectors=0
Vectors Color=0 0 0
Display Texture Map=0
Texture Map Color=0 0 0

[2D Scatter Point Sets Display Options]
Display Point Labels=0
Point Labels Color=0 0 0
Point Labels Text Font=2
Point Labels Text Fill=0 0 0
Point Labels Text Use Fill=0
Point Labels Text Autoformat=0
Point Labels Text in Scientific Notation=0
Point Labels Text Precision=4
Display Point Numbers=0
Point Numbers Color=0 0 0
Point Numbers Text Font=2
Point Numbers Text Fill=0 0 0
Point Numbers Text Use Fill=0
Point Numbers Text Autoformat=0
Point Numbers Text in Scientific Notation=0
Point Numbers Text Precision=4
Display Point Scalar=0
Point Scalar Color=0 0 0
Point Scalar Text Font=2
Point Scalar Text Fill=0 0 0
Point Scalar Text Use Fill=0
Point Scalar Text Autoformat=0
Point Scalar Text in Scientific Notation=0
Point Scalar Text Precision=4
Display Inactive Point=0
Inactive Point Color=255 0 0
Color Option=0
Data Color Specified Interval=0
Minimum Data Color Value=0.0
Maximum Data Color Value=1.0
2D Scatter Locked=1

[2D Scatter Point Sets Create Points]
Dataset Default Value=0.0
Confirm Default Value=0

[3D Scatter Point Sets Display Options]
Display Point Symbols Legend=0
Point Symbols Legend Color=0 0 0
Display Point Labels=0
Point Labels Color=0 0 0
Point Labels Text Font=2
Point Labels Text Fill=0 0 0
Point Labels Text Use Fill=0
Point Labels Text Autoformat=0
Point Labels Text in Scientific Notation=0
Point Labels Text Precision=4
Display Point Numbers=0
Point Numbers Color=0 0 0
Point Numbers Text Font=2
Point Numbers Text Fill=0 0 0
Point Numbers Text Use Fill=0
Point Numbers Text Autoformat=0
Point Numbers Text in Scientific Notation=0
Point Numbers Text Precision=4
Display Scalar Value=0
Scalar Value Color=0 0 0
Scalar Value Text Font=2
Scalar Value Text Fill=0 0 0
Scalar Value Text Use Fill=0
Scalar Value Text Autoformat=1
Scalar Value Text in Scientific Notation=0
Scalar Value Text Precision=3
Display Inactive Point=0
Inactive Point Color=255 0 0
Color Option=0
Data Color Specified Interval=0
Minimum Data Color Value=0.0
Maximum Data Color Value=1.0
3D Scatter Locked=1

[2D Interpolation Options]
Interpolation Method=1
Default Extrapolation Value=0.0
Truncate Values=0
Truncate Option=0
Minimum Truncation Value=0.0
Maximum Truncation Value=0.0
Use Log Interpolation=0
Minimum Log Interpolation Value=1.0e-006
Default To Hidden Objects=0

[2D IDW Interpolation Options]
Nodal Function=1
Computation of Nodal Function Coefficients=0
Computation of Interpolation Weights=0

[2D Subset Definition]
Nodal Function Nearest Point Option=0
Nodal Function # Of Nearest Points=16
Nodal Function Search Method=1
Interpolation Weights # Of Nearest Points=0
Interpolation Weights Search Method=16
Interpolation Weights Nearest Point Option=1

[Natural Neighbor Options]
Nodal Function=1
Nodal Functions Computed From=2
# Closest Scatter Point=64
Bounding Window % Beyond Convex Hull=10.0
Extrapolate Beyond Convex Hull=1

[3D Interpolation Options]
Interpolation Method=0
Vertical Anisotropy=1.0
Truncate Values=0
Truncate Option=0
Minimum Truncation Value=0.0
Maximum Truncation Value=0.0
Use Log Interpolation=0
Default To Hidden Objects=0

[3D IDW Interpolation Options]
Nodal Function=1
Computation of Nodal Function Coefficients=0
Computation of Interpolation Weights=0

[3D Subset Definition]
Nodal Function Influence Options=0
Nodal Function # Of Nearest Points=32
Interpolation Weights Influence Options=0
Interpolation Weights # Of Nearest Points=32

[Kriging Options]
Kriging Type=1
Zonal Kriging=0
Min Cutoff Value=-3.4028235e+038
Max Cutoff Value=3.40282347e+038
Min Number Of Points=1
Max Number Of Points=32
Search Type=0
Max Number To Retain From An Octant=4
Drift Order 0=0
Drift Order 1=0
Drift Order 2=0
Drift Order 3=0
Drift Order 4=0
Drift Order 5=0
Drift Order 6=0
Drift Order 7=0
Drift Order 8=0
Indicator Random Seed=1.0
Indicator Seed Increment=1.0
Indicator Number of Simulations=1
Zone Relation 00=0
Zone Relation 01=0
Zone Relation 02=0
Zone Relation 03=0
Zone Relation 04=0
Zone Relation 05=0
Zone Relation 06=0
Zone Relation 07=0
Zone Relation 08=0
Zone Relation 09=0
Zone Relation 10=0
Zone Relation 11=0
Zone Relation 12=0
Zone Relation 13=0
Zone Relation 14=0
Zone Relation 15=0
Zone Relation 16=0
Zone Relation 17=0
Zone Relation 18=0
Zone Relation 19=0
Zone Relation 20=0
Zone Relation 21=0
Zone Relation 22=0
Zone Relation 23=0
Zone Relation 24=0
Zone Relation 25=0
Zone Relation 26=0
Zone Relation 27=0
Zone Relation 28=0
Zone Relation 29=0
Zone Relation 30=0
Zone Relation 31=0
Zone Relation 32=0
Zone Relation 33=0
Zone Relation 34=0
Zone Relation 35=0
Zone Relation 36=0
Zone Relation 37=0
Zone Relation 38=0
Zone Relation 39=0
Zone Relation 40=0
Zone Relation 41=0
Zone Relation 42=0
Zone Relation 43=0
Zone Relation 44=0
Zone Relation 45=0
Zone Relation 46=0
Zone Relation 47=0
Zone Relation 48=0
Zone Relation 49=0
Zone Relation 50=0
Zone Relation 51=0
Zone Relation 52=0
Zone Relation 53=0
Zone Relation 54=0
Zone Relation 55=0
Zone Relation 56=0
Zone Relation 57=0
Zone Relation 58=0
Zone Relation 59=0
Zone Relation 60=0
Zone Relation 61=0
Zone Relation 62=0
Zone Relation 63=0
Zone Relation 64=0
Zone Relation 65=0
Zone Relation 66=0
Zone Relation 67=0
Zone Relation 68=0
Zone Relation 69=0
Zone Relation 70=0
Zone Relation 71=0
Zone Relation 72=0
Zone Relation 73=0
Zone Relation 74=0
Zone Relation 75=0
Zone Relation 76=0
Zone Relation 77=0
Zone Relation 78=0
Zone Relation 79=0
Zone Relation 80=0
Zone Relation 81=0
Zone Relation 82=0
Zone Relation 83=0
Zone Relation 84=0
Zone Relation 85=0
Zone Relation 86=0
Zone Relation 87=0
Zone Relation 88=0
Zone Relation 89=0
Zone Relation 90=0
Zone Relation 91=0
Zone Relation 92=0
Zone Relation 93=0
Zone Relation 94=0
Zone Relation 95=0
Zone Relation 96=0
Zone Relation 97=0
Zone Relation 98=0
Zone Relation 99=0
Fuzzy Thickness 00=5
Fuzzy Thickness 01=5
Fuzzy Thickness 02=5
Fuzzy Thickness 03=5
Fuzzy Thickness 04=5
Fuzzy Thickness 05=5
Fuzzy Thickness 06=5
Fuzzy Thickness 07=5
Fuzzy Thickness 08=5
Fuzzy Thickness 09=5
Fuzzy Thickness 10=5
Fuzzy Thickness 11=5
Fuzzy Thickness 12=5
Fuzzy Thickness 13=5
Fuzzy Thickness 14=5
Fuzzy Thickness 15=5
Fuzzy Thickness 16=5
Fuzzy Thickness 17=5
Fuzzy Thickness 18=5
Fuzzy Thickness 19=5
Fuzzy Thickness 20=5
Fuzzy Thickness 21=5
Fuzzy Thickness 22=5
Fuzzy Thickness 23=5
Fuzzy Thickness 24=5
Fuzzy Thickness 25=5
Fuzzy Thickness 26=5
Fuzzy Thickness 27=5
Fuzzy Thickness 28=5
Fuzzy Thickness 29=5
Fuzzy Thickness 30=5
Fuzzy Thickness 31=5
Fuzzy Thickness 32=5
Fuzzy Thickness 33=5
Fuzzy Thickness 34=5
Fuzzy Thickness 35=5
Fuzzy Thickness 36=5
Fuzzy Thickness 37=5
Fuzzy Thickness 38=5
Fuzzy Thickness 39=5
Fuzzy Thickness 40=5
Fuzzy Thickness 41=5
Fuzzy Thickness 42=5
Fuzzy Thickness 43=5
Fuzzy Thickness 44=5
Fuzzy Thickness 45=5
Fuzzy Thickness 46=5
Fuzzy Thickness 47=5
Fuzzy Thickness 48=5
Fuzzy Thickness 49=5
Fuzzy Thickness 50=5
Fuzzy Thickness 51=5
Fuzzy Thickness 52=5
Fuzzy Thickness 53=5
Fuzzy Thickness 54=5
Fuzzy Thickness 55=5
Fuzzy Thickness 56=5
Fuzzy Thickness 57=5
Fuzzy Thickness 58=5
Fuzzy Thickness 59=5
Fuzzy Thickness 60=5
Fuzzy Thickness 61=5
Fuzzy Thickness 62=5
Fuzzy Thickness 63=5
Fuzzy Thickness 64=5
Fuzzy Thickness 65=5
Fuzzy Thickness 66=5
Fuzzy Thickness 67=5
Fuzzy Thickness 68=5
Fuzzy Thickness 69=5
Fuzzy Thickness 70=5
Fuzzy Thickness 71=5
Fuzzy Thickness 72=5
Fuzzy Thickness 73=5
Fuzzy Thickness 74=5
Fuzzy Thickness 75=5
Fuzzy Thickness 76=5
Fuzzy Thickness 77=5
Fuzzy Thickness 78=5
Fuzzy Thickness 79=5
Fuzzy Thickness 80=5
Fuzzy Thickness 81=5
Fuzzy Thickness 82=5
Fuzzy Thickness 83=5
Fuzzy Thickness 84=5
Fuzzy Thickness 85=5
Fuzzy Thickness 86=5
Fuzzy Thickness 87=5
Fuzzy Thickness 88=5
Fuzzy Thickness 89=5
Fuzzy Thickness 90=5
Fuzzy Thickness 91=5
Fuzzy Thickness 92=5
Fuzzy Thickness 93=5
Fuzzy Thickness 94=5
Fuzzy Thickness 95=5
Fuzzy Thickness 96=5
Fuzzy Thickness 97=5
Fuzzy Thickness 98=5
Fuzzy Thickness 99=5

[Variogram Plot Options]
Background Color=255 255 255
Foreground Color=0 0 0

[2D Grid Display Options]
Display Cell Materials=0
IJ Axis Length=50
Display Contours=0
Display Vectors=0
Vectors Color=0 0 0
Visible=1
Display Node=0
Node Color=0 0 0
Node Point Radius=2
Display Cell=1
Cell Color=0 0 0
Cell Line Width=1
Cell Line Style=0
Display Cell Number=0
Cell Number Color=0 0 255
Cell Number Text Font=2
Cell Number Text Fill=128 128 128
Cell Number Text Use Fill=0
Cell Number Text Autoformat=0
Cell Number Text in Scientific Notation=0
Cell Number Text Precision=0
Display Node Number=0
Node Number Color=0 0 255
Node Number Text Font=2
Node Number Text Fill=128 128 128
Node Number Text Use Fill=0
Node Number Text Autoformat=0
Node Number Text in Scientific Notation=0
Node Number Text Precision=0
Display IJ Orientation=0
IJ Orientation Color=0 255 51
IJ Orientation Line Width=2
IJ Orientation Line Style=0
Display IJ Text=0
IJ Text Color=0 255 51
IJ Text Text Font=2
IJ Text Text Fill=128 128 128
IJ Text Text Use Fill=0
IJ Text Text Autoformat=0
IJ Text Text in Scientific Notation=0
IJ Text Text Precision=0
Display IJ Indices=0
IJ Indices Color=0 255 51
IJ Indices Text Font=2
IJ Indices Text Fill=128 128 128
IJ Indices Text Use Fill=0
IJ Indices Text Autoformat=0
IJ Indices Text in Scientific Notation=0
IJ Indices Text Precision=0
Display Inactive Cell=0
Inactive Cell Color=255 0 0
Inactive Cell Line Width=2
Inactive Cell Line Style=0
Display Scalar Value=0
Scalar Value Color=0 0 0
Scalar Value Text Font=2
Scalar Value Text Fill=128 128 128
Scalar Value Text Use Fill=0
Scalar Value Text Autoformat=1
Scalar Value Text in Scientific Notation=4
Scalar Value Text Precision=0
Display Grid Boundary=0
Grid Boundary Color=0 0 255
Grid Boundary Line Width=2
Grid Boundary Line Style=0
Display Texture Map=0
Texture Map Color=0 0 0

[3D Grid Display Options]
Contour Type=0
Fill Cells Type=0
Display Node=0
Node Color=0 0 0
Node Point Radius=2
Display Cells Method=0
Visible=1
Display Cell Number=0
Cell Number Color=0 0 255
Cell Number Text Font=1
Cell Number Text Fill=128 128 128
Cell Number Text Use Fill=0
Cell Number Text Autoformat=0
Cell Number Text in Scientific Notation=0
Cell Number Text Precision=0
Display Node Number=0
Node Number Color=0 0 255
Node Number Text Font=1
Node Number Text Fill=128 128 128
Node Number Text Use Fill=0
Node Number Text Autoformat=0
Node Number Text in Scientific Notation=0
Node Number Text Precision=0
Display Grid Shell=0
Grid Shell Color=255 255 255
Grid Shell Line Width=2
Grid Shell Line Style=0
Display Cells=1
Cells Color=0 0 0
Cells Line Width=1
Cells Line Style=0
Display Faces=0
Faces Color=0 0 0
Display Inactive Cell=0
Inactive Cell Color=255 255 255
Inactive Cell Line Width=2
Inactive Cell Line Style=0
Display IJK Orientation=0
IJK Orientation Color=0 255 51
IJK Orientation Line Width=2
IJK Orientation Line Style=0
Display IJK Font=0
IJK Font Color=0 255 51
IJK Font Text Font=1
IJK Font Text Fill=128 128 128
IJK Font Text Use Fill=0
IJK Font Text Autoformat=0
IJK Font Text in Scientific Notation=0
IJK Font Text Precision=0
Display IJK Indices Fill=0
IJK Indices Fill Color=0 255 51
IJK Indices Fill Text Font=1
IJK Indices Fill Text Fill=128 128 128
IJK Indices Fill Text Use Fill=0
IJK Indices Fill Text Autoformat=0
IJK Indices Fill Text in Scientific Notation=0
IJK Indices Fill Text Precision=0
Display Vectors=0
Vectors Color=0 0 0
Display Layer Boundary=0
Layer Boundary Color=0 0 255
Layer Boundary Line Width=2
Layer Boundary Line Style=0
Display Scalar Value=0
Scalar Value Color=0 0 0
Scalar Value Text Font=1
Scalar Value Text Fill=128 128 128
Scalar Value Text Use Fill=0
Scalar Value Text Autoformat=0
Scalar Value Text in Scientific Notation=4
Scalar Value Text Precision=0
Display Display Isosurfaces=0
Display Isosurfaces Color=0 0 0
IJK Axis Length=50
Display Grid Contours=1
True Layer Display=1
Ortho View Mode=1
Ortho View IJK plane=1
Ortho Level=1

[Particle Display Options]
Display Starting Locations=1
Starting Locations Color=0 0 0
Starting Locations Symbol ID=0
Starting Locations Symbol Size=3
Display Ending Locations=0
Ending Locations Color=0 0 0
Ending Locations Symbol ID=0
Ending Locations Symbol Size=3
Display Particles=0
Particles Color=255 255 255
Particles Symbol ID=0
Particles Symbol Size=3
Display Pathlines=1
Pathlines Color=0 0 255
Pathlines Line Width=1
Pathlines Line Style=0
Display Direction arrows=0
Direction arrows Color=0 0 255
Direction arrows Line Width=1
Direction arrows Line Style=0
Display Capture Zone Boundary=1
Capture Zone Boundary Color=153 0 255
Capture Zone Boundary Line Width=2
Capture Zone Boundary Line Style=0
Display Capture Zone Fill=0
Capture Zone Fill Color=255 204 0
Capture Zone Fill Fill Pattern=0
Pathline Color Option=0
Length=10
Time Interval=1000.0
Delineation Option=0
Boundary Color Option=0
Poly Fill Color Option=0
Auto Compute Colors=1
Auto Update=1
Thin Triangle Ratio=0.98
Zone Code Colors=2
Color 0=1 2 0 0
Color 1=2 0 0 0
Data Source=0
Model Array=0
Stress Period=0
Species=0
Auto Interp Layer Contours=1
Truncate Layer Contours=1

[Cell Shading Options]
Data Source=0
Model Array=0
Stress Period=0
Species=0
Display Legend=0
Auto-compute=1
Number of Ranges=7
Cutoff Value #1=-10.0
Cutoff Value #2=-9.0
Cutoff Value #3=-8.0
Cutoff Value #4=-7.0
Cutoff Value #5=-6.0
Cutoff Value #6=-5.0
Cutoff Value #7=-4.0
Cutoff Value #8=-3.0
Cutoff Value #9=0.0
Cutoff Value #10=0.0
Cutoff Value #11=0.0
Cutoff Value #12=0.0
Cutoff Value #13=0.0
Cutoff Value #14=0.0
Cutoff Value #15=0.0
Cutoff Value #16=0.0
Cutoff Value #17=0.0
Cutoff Value #18=0.0
Cutoff Value #19=0.0
Cutoff Value #20=0.0
Cutoff Value #21=0.0
Range Color #1=0 0 255
Range Color #2=0 145 255
Range Color #3=0 255 218
Range Color #4=0 255 72
Range Color #5=72 255 0
Range Color #6=218 255 0
Range Color #7=255 0 0
Range Color #8=0 0 0
Range Color #9=0 0 0
Range Color #10=0 0 0
Range Color #11=0 0 0
Range Color #12=0 0 0
Range Color #13=0 0 0
Range Color #14=0 0 0
Range Color #15=0 0 0
Range Color #16=0 0 0
Range Color #17=0 0 0
Range Color #18=0 0 0
Range Color #19=0 0 0
Range Color #20=0 0 0

[2D Meshes]
Interpolate Z On Interior=1
Default Z Value=0.0
Prompt For Z Value=0
Retriangulate When Deleting=0
Insert Nodes Into Triangulation=0
Check For Coincident Nodes=1
Node String Option=1
Number of String Intervals=9
Number of Interpolated Nodes=8
Total Number of String Nodes=10
Lock Nodes=1
Minimum Element Aspect Ratio=0.04
Minimum Interior Quad Angle=65.0
Duplicate Tolerance=0.001
Remove Duplicate Option=0

[2D Meshes]
Number Relax Iterations=3
Interpolate Z While Relaxing=0
Preserve Material Boundary=0

[2D Mesh Display Options]
Visible=1
Display Element Materials=0
Element Materials Color=0 0 0
Display Contours=0
Contours Color=0 0 0
Display Vectors=0
Vectors Color=0 0 0
Display Vector=0
Vector Color=0 0 0
Display Node=1
Node Color=0 0 0
Node Point Radius=2
Display Mesh Element=1
Mesh Element Color=0 0 0
Mesh Element Line Width=1
Mesh Element Line Style=0
Display Node Number=0
Node Number Color=0 0 0
Node Number Text Font=2
Node Number Text Fill=0 0 0
Node Number Text Use Fill=0
Node Number Text Autoformat=0
Node Number Text in Scientific Notation=0
Node Number Text Precision=0
Display Mesh Boundary=0
Mesh Boundary Color=0 0 255
Mesh Boundary Line Width=2
Mesh Boundary Line Style=0
Display Element Number=0
Element Number Color=0 0 255
Element Number Text Font=2
Element Number Text Fill=0 0 0
Element Number Text Use Fill=0
Element Number Text Autoformat=0
Element Number Text in Scientific Notation=0
Element Number Text Precision=0
Display Scalar Value=0
Scalar Value Color=0 0 0
Scalar Value Text Font=2
Scalar Value Text Fill=0 0 0
Scalar Value Text Use Fill=0
Scalar Value Text Autoformat=0
Scalar Value Text in Scientific Notation=0
Scalar Value Text Precision=4
Display Thin Element=0
Thin Element Color=255 0 0
Thin Element Line Width=1
Thin Element Line Style=0
Display Texture Map=0
Texture Map Color=0 0 0

[3D Meshes]
Lock Nodes=0
Number Of 3D Mesh Layers=2

[3D Mesh Display Options]
Visible=1
Display Node=1
Node Color=0 0 0
Node Point Radius=2
Display Scalar Value=0
Scalar Value Color=0 0 0
Scalar Value Text Font=2
Scalar Value Text Fill=0 0 0
Scalar Value Text Use Fill=0
Scalar Value Text Autoformat=0
Scalar Value Text in Scientific Notation=0
Scalar Value Text Precision=4
Display Mesh Shell=0
Mesh Shell Color=255 255 255
Mesh Shell Line Width=1
Mesh Shell Line Style=0
Display Mesh Element=1
Mesh Element Color=0 0 0
Mesh Element Line Width=1
Mesh Element Line Style=0
Display Mesh Face=0
Mesh Face Color=0 0 0
Display Node Number=0
Node Number Color=0 0 0
Node Number Text Font=2
Node Number Text Fill=0 0 0
Node Number Text Use Fill=0
Node Number Text Autoformat=0
Node Number Text in Scientific Notation=0
Node Number Text Precision=0
Display Element Number=0
Element Number Color=0 0 255
Element Number Text Font=2
Element Number Text Fill=0 0 0
Element Number Text Use Fill=0
Element Number Text Autoformat=0
Element Number Text in Scientific Notation=0
Element Number Text Precision=0
Display Contours=0
Contours Color=0 0 0
Display Vectors=0
Vectors Color=0 0 0
Display Vector=0
Vector Color=0 0 0
Display Isosurfaces=0
Isosurfaces Color=0 0 0
Display Texture Map=0
Texture Map Color=0 0 0
Display Elements=1
Element Display Method=1
Mesh Shell Feature Angle=20.0
Mesh Element Color Method=0

[ADH Display Options]
Display Dirichlet Velocity=1
Dirichlet Velocity Color=255 102 0
Dirichlet Velocity Symbol ID=0
Dirichlet Velocity Symbol Size=6
Display Dirichlet Pressure=1
Dirichlet Pressure Color=255 204 0
Dirichlet Pressure Symbol ID=1
Dirichlet Pressure Symbol Size=6
Display Dirichlet Concentration=1
Dirichlet Concentration Color=153 102 0
Dirichlet Concentration Symbol ID=2
Dirichlet Concentration Symbol Size=6
Display Dirichlet External=1
Dirichlet External Color=255 0 0
Dirichlet External Symbol ID=3
Dirichlet External Symbol Size=6
Display Dirichlet Displacement=1
Dirichlet Displacement Color=255 0 204
Dirichlet Displacement Symbol ID=4
Dirichlet Displacement Symbol Size=6
Display Dirichlet Free-surface=1
Dirichlet Free-surface Color=153 0 255
Dirichlet Free-surface Symbol ID=5
Dirichlet Free-surface Symbol Size=6
Display Natural Pressure=1
Natural Pressure Color=0 204 255
Natural Pressure Symbol ID=6
Natural Pressure Symbol Size=6
Display Natural Velocity=1
Natural Velocity Color=0 0 255
Natural Velocity Symbol ID=7
Natural Velocity Symbol Size=6
Display Natural Concentration=1
Natural Concentration Color=0 255 51
Natural Concentration Symbol ID=8
Natural Concentration Symbol Size=6
Display Outflow Transport=1
Outflow Transport Color=255 255 102
Outflow Transport Symbol ID=9
Outflow Transport Symbol Size=6
Display Outflow External=1
Outflow External Color=153 51 51
Outflow External Symbol ID=0
Outflow External Symbol Size=6
Display Outflow=1
Outflow Color=255 153 255
Outflow Symbol ID=1
Outflow Symbol Size=6
Display Dirichlet Head=1
Dirichlet Head Color=102 153 153
Dirichlet Head Symbol ID=2
Dirichlet Head Symbol Size=6
Display Dirichlet Overland Head=1
Dirichlet Overland Head Color=51 51 153
Dirichlet Overland Head Symbol ID=3
Dirichlet Overland Head Symbol Size=6
Display Natural Flux=1
Natural Flux Color=51 153 51
Natural Flux Symbol ID=4
Natural Flux Symbol Size=6
Display Natural Tail Water Elevation=1
Natural Tail Water Elevation Color=128 128 128
Natural Tail Water Elevation Line Width=2
Natural Tail Water Elevation Line Style=0
Display Border Nodes=1
Border Nodes Color=102 102 102
Border Nodes Symbol ID=5
Border Nodes Symbol Size=6
Display Ghost Nodes=1
Ghost Nodes Color=255 255 102
Ghost Nodes Symbol ID=6
Ghost Nodes Symbol Size=6
Display Node Sets=1
Node Sets Color=51 51 153
Node Sets Symbol ID=7
Node Sets Symbol Size=6
Display Face Sets=1
Face Sets Color=255 0 204
Face Sets Symbol ID=8
Face Sets Symbol Size=6
Display Edge Sets=1
Edge Sets Color=153 51 51
Edge Sets Line Width=2
Edge Sets Line Style=0

[MESH QUALITY CHECK set up]
Check Tet Alpha=1
Tet Alpha Value=4.0
Check Pyramid Alpha=1
Pyramid Alpha Value=4.0
Check Wedge Alpha=1
Wedge Alpha Value=4.0
Check Hex Alpha=1
Hex Alpha Value=4.0

[Contour Label Options]
Display Attributes=1
Attributes Color=0 0 0
Attributes Text Font=2
Attributes Text Fill=0 0 0
Attributes Text Use Fill=2
Attributes Text Autoformat=0
Attributes Text in Scientific Notation=0
Attributes Text Precision=3
Autospace=1
Decimal Places=3
Parallel=1
Placement=0
Spacing=24750.0
Display Legend Text=1
Legend Text Color=0 0 0
Legend Text Text Font=2
Legend Text Text Fill=128 128 128
Legend Text Text Use Fill=0
Legend Text Text Autoformat=0
Legend Text Text in Scientific Notation=0
Legend Text Text Precision=4

[Vector Options]
Auto Compute Length=1
Length=1.0
Vector Head Width=15.0
Vector Head Length=20.0
Vector Stem Width=2.0
Vary Vector Length With Magnitude=0
Auto Compute Scaling Ratio=1
Scaling Ratio=0.0
Vary Vector Color With Magnitude=0
Display Every nth Vector=0
nth Value=3
Color Specified Range=0
Range Min=0.0
Range Max=1.0

[Histogram Settings]
Number of Intervals=20
Precision Option=0
Precision=2

[Color Ramp Options]
Ramp Hues/Intensity=2
Ramp Color=0 255 51
Display Legend=0
Legend Width=15
Legend Height=200
Min Hue=240.0
Max Hue=0.0

[Iso-surface Options]
Define As Cross-Section=0
Interior Edge Removal=0
Feature Angle=0.01
Iso Visible Region Only=1
Isosurface Number Defaults=2
Isosurface Number Values=0
Display Isosurface Edges=1
Isosurface Edges Color=0 0 0
Display Isosurface Faces=0
Isosurface Faces Color=0 0 0
Specified Range=0
Range Min Value=0.0
Range Max Value=1.0
Isocap 0 Exists=0
Isocap 1 Exists=0
Isocap 2 Exists=0
Isocap 3 Exists=0
Isocap 4 Exists=0
Isocap 5 Exists=0
Isocap 6 Exists=0
Isocap 7 Exists=0
Isocap 8 Exists=0
Isocap 9 Exists=0
Isocap 10 Exists=0
Isocap 11 Exists=0
Isocap 12 Exists=0
